9
[C](-[C:1](-[O:2]-[H:8])(-[H:6])-[H:7])(-[H:3])(-[H:4])-[H:5]
C   -0.8871   0.1751   -0.0125 
C   0.4605   -0.5155   -0.0465 
O   1.4430   0.3073   0.5656 
H   -0.8475   1.1278   -0.5508 
H   -1.6588   -0.4533   -0.4658 
H   -1.1769   0.4037   1.0183 
H   0.7687   -0.7243   -1.0755 
H   0.4195   -1.4621   0.5002 
H   1.4786   1.1415   0.0671 
