9
[H]-[O]-[C](-[H])(-[H])-[C](-[H])(-[H])-[H]
O   1.4781   -0.4641   -0.3102 
C   0.4485   0.5027   -0.1615 
C   -0.8833   -0.1876   0.0475 
H   1.4986   -0.9979   0.5023 
H   0.4237   1.1165   -1.0666 
H   0.6933   1.1487   0.6870 
H   -0.8593   -0.8106   0.9476 
H   -1.6901   0.5438   0.1474 
H   -1.1093   -0.8515   -0.7933 
