9
[H]-[O]-[C](-[H])(-[H])-[C](-[H])(-[H])-[H]
H   1.5857   0.8259   -0.8159 
H   -1.0753   1.0149   0.3607 
H   -1.7179   -0.4431   -0.4333 
H   -0.7600   0.7442   -1.3487 
H   0.6349   -1.2682   -0.7813 
H   0.2989   -1.0032   0.9409 
O   1.4944   0.3984   0.0527 
C   -0.8648   0.2392   -0.3828 
C   0.4041   -0.5081   -0.0288 
