30
[H]-[C]1=[C](-[H])-[C](-[H])=[C]2-[C](-[C@](-[H])(-[C](-[H])(-[H])-[H])-[C](-[H])(-[H])-[C](-[H])(-[H])-[H])=[C](-[H])-[C](-[H])=[C](-[H])-[C]-2=[C]-1-[H]
H   4.2591   1.4083   -2.1594 
H   1.1439   -3.0840   1.7486 
H   2.2441   2.8542   -2.1725 
H   -0.8865   -1.7359   1.8009 
H   4.2436   -0.7081   -0.9094 
H   3.1201   -2.3299   0.5024 
H   0.2447   2.1977   -0.9547 
H   -3.4803   -0.9464   -1.6775 
H   -3.5141   -1.1581   0.0736 
H   -2.0911   -1.6657   -0.8614 
H   -1.5651   0.7632   2.8007 
H   -3.0208   1.2836   1.9422 
H   -2.6319   -0.4321   2.0512 
H   -3.0949   1.2170   -0.5974 
H   -1.6964   0.7155   -1.5286 
H   -1.0886   1.7635   0.6326 
C   3.3689   1.1116   -1.6120 
C   1.1173   -2.1355   1.2188 
C   2.2423   1.9194   -1.6182 
C   -0.0334   -1.3544   1.2466 
C   3.3514   -0.0853   -0.9009 
C   2.2310   -1.7033   0.5103 
C   1.1008   1.5303   -0.9109 
C   -0.0978   -0.1194   0.5718 
C   2.2106   -0.4894   -0.1868 
C   1.0445   0.3222   -0.1723 
C   -2.8681   -0.9016   -0.7705 
C   -2.1954   0.5629   1.9270 
C   -2.2709   0.4925   -0.6216 
C   -1.3869   0.7074   0.6273 
