40
[H]-[C]1=[N]-[C](-[Cl])=[C](-[F])-[C](-[N](-[H])-[C](=[O])-[C]2=[C](-[Cl])-[C](-[S](=[O])(=[O])-[N](-[H])-[C@](-[H])(-[C](-[H])(-[H])-[H])-[C](-[F])(-[F])-[F])=[C](-[H])-[N]-2-[C](-[H])(-[H])-[H])=[C]-1-[H]
H   -5.7626   3.6574   -1.2337 
H   -3.5457   2.8146   -0.5737 
H   0.7300   -2.8264   1.3693 
H   -2.6906   -0.8327   -1.1178 
H   4.8648   -1.7843   0.7401 
H   -2.0581   -0.6055   2.1282 
H   -1.3446   -2.1999   2.4914 
H   -2.4950   -2.0375   1.1284 
H   6.3577   0.1022   1.2841 
H   6.1215   1.5364   0.2674 
H   6.2784   -0.0647   -0.4740 
H   3.9182   0.6911   -0.4643 
O   -1.5066   1.9309   -0.0834 
O   3.3244   -1.3666   -1.8454 
O   2.9961   -3.2822   -0.2421 
F   -4.7376   -1.3376   -1.9697 
F   4.0060   2.4134   1.4932 
F   2.4230   0.9320   1.7206 
F   4.2969   0.7016   2.8149 
Cl   -7.4603   -0.3783   -2.7952 
Cl   1.2592   0.8949   -1.8479 
N   -6.4849   1.8496   -1.9191 
C   -1.6293   0.7419   -0.3441 
C   -5.5102   2.6086   -1.3740 
C   -6.1894   0.5451   -2.1054 
C   -4.2614   2.1239   -1.0046 
C   -4.9754   -0.0300   -1.7714 
C   0.6959   -0.2303   -0.6980 
C   -3.9838   0.7738   -1.2076 
C   1.3981   -1.3440   -0.1735 
C   0.5624   -1.9572   0.7435 
C   -0.5649   -0.2117   -0.1161 
N   -2.7586   0.1513   -0.8753 
N   4.0630   -1.1762   0.5698 
N   -0.6108   -1.2556   0.7849 
C   -1.7018   -1.5429   1.6940 
C   5.8631   0.4787   0.3819 
C   3.7624   1.0907   1.6344 
C   4.3496   0.2908   0.4575 
S   3.0012   -1.8652   -0.5310 
