46
[H]-[C]1=[C](-[F])-[C](-[C](-[H])(-[H])-[H])=[C](-[H])-[C](-[N](-[H])-[C](=[O])-[C]2=[C](-[C](-[H])(-[H])-[H])-[S]-[C](-[S](=[O])(=[O])-[N](-[H])-[C](-[C](-[H])(-[H])-[H])(-[C](-[H])(-[H])-[H])-[C](-[H])(-[H])-[H])=[C]-2-[H])=[C]-1-[H]
H   5.2465   -0.1469   -3.5972 
H   -1.2918   1.2184   -0.3583 
H   3.0149   -0.2316   -2.5836 
H   4.8122   0.1484   1.3322 
H   2.5461   -0.0008   1.1421 
H   -4.6649   2.4233   0.5796 
H   1.8979   -1.5339   2.8066 
H   0.6631   -2.8061   2.7715 
H   1.6341   -2.4969   1.3360 
H   7.2149   -0.0347   1.5436 
H   8.2118   -0.3725   0.1295 
H   7.7316   1.3054   0.4967 
H   -4.7974   -1.3028   -1.4987 
H   -3.2438   -0.5422   -1.1516 
H   -4.1677   -1.3181   0.1425 
H   -5.5929   2.3431   -1.7012 
H   -5.6318   0.8054   -2.5791 
H   -4.0846   1.6021   -2.2416 
H   -6.3813   -0.2110   0.9614 
H   -6.9993   -0.1586   -0.6872 
H   -6.8904   1.3285   0.2679 
O   0.9673   -0.0324   -1.6099 
O   -3.2684   2.1927   2.6283 
O   -4.3446   -0.0851   2.4119 
F   7.4767   0.0806   -2.3087 
S   -1.2808   -0.7602   2.6419 
C   1.2390   -0.1154   -0.4189 
C   0.1415   -1.0009   1.7098 
C   -1.9387   0.3245   1.5064 
C   5.1403   -0.0879   -2.5182 
C   -1.0663   0.5450   0.4618 
C   3.8743   -0.1305   -1.9279 
C   4.8955   0.0751   0.2501 
C   6.2724   0.0331   -1.7220 
C   0.1624   -0.1924   0.5786 
C   3.7405   -0.0438   -0.5401 
C   6.1715   0.1038   -0.3329 
N   2.5042   -0.0794   0.1351 
N   -4.2222   1.5152   0.4251 
C   1.1367   -2.0132   2.1827 
C   7.4025   0.2616   0.5062 
C   -4.2527   -0.7043   -0.7588 
C   -5.0778   1.3840   -1.8313 
C   -6.3857   0.3821   0.0426 
C   -4.9711   0.6213   -0.4974 
S   -3.5438   0.9892   1.8743 
