9
[H]-[O]-[C](-[H])(-[H])-[C](-[H])(-[H])-[H]
H   1.3749   -0.3988   -1.4384 
H   1.5957   0.2252   0.2139 
H   0.8533   1.2481   -1.0096 
H   -1.1132   -0.3000   -1.1277 
H   -1.8555   0.1480   0.9789 
C   -0.4385   -0.3131   -0.2664 
O   -0.9824   0.5117   0.7532 
C   0.9263   0.2155   -0.6527 
H   -0.3608   -1.3366   0.1123
